 00 
 02 
 04 
 06 
 08 
 0A 
 0C 
 0E 
 10 
 12 
 14 
 16 
 18 
 1A 
 1C 
 1E 
 20 
 22 
 24 
 26 
 28 
 2A 
 2C 
 2E 
 30 
 32 
 34 
 36 
 38 
 3A 
 3C 
 3E 
 3F 
 41 
 43 
 45 
 47 
 49 
 4B 
 4D 
 4F 
 51 
 53 
 55 
 57 
 59 
 5B 
 5D 
 5F 
 61 
 63 
 65 
 67 
 69 
 6B 
 6D 
 6F 
 71 
 73 
 75 
 77 
 79 
 7B 
 7D 
